results/sensitivity_bridge_z.csv
PCT_Z,XHL,Bus650_V_pu,FaultI_A,CB2_Trip_s
3.0,2.958,0.9687,11231.3,0.2786
3.5,3.4641,0.9673,10658.0,0.2857
4.0,3.9686,0.9659,10140.8,0.2928
4.5,4.4721,0.9645,9671.4,0.3
5.0,4.9749,0.9631,9243.3,0.3071
5.5,5.4772,0.9616,8851.2,0.3144
6.0,5.9791,0.9602,8490.7,0.3216
6.5,6.4807,0.9587,8158.0,0.329
7.0,6.9821,0.9573,7851.5,0.3364
7.5,7.4833,0.9558,7565.8,0.3438
8.0,7.9844,0.9543,7300.0,0.3514
8.5,8.4853,0.9528,7052.1,0.359
9.0,8.9861,0.9513,6820.1,0.3668
